 FONT CODE CORRESPONDING TO DSDC
*START CP*
 CHAR    UC    REP UC
------+------+--------
   00   0000
   01   0001
   02   0002
   03   0003
   04   0004
   05   0005
   06   0006
   07   0007
   08   0008
   09   0009
   0A   000A
   0B   000B
   0C   000C
   0D   000D
   0E   000E
   0F   000F
   10   0010
   11   0011
   12   0012
   13   0013
   14   0014
   15   0015
   16   0016
   17   0017
   18   0018
   19   0019
   1A   001A
   1B   001B
   1C   001C
   1D   001D
   1E   001E
   1F   001F
   20   0020
   21   00A7
   22   0022
   23   2518
   24   2502
   25   0025
   26   0026
   27   0027
   28   0028
   29   0029
   2A   002A
   2B   002B
   2C   002C
   2D   002D
   2E   002E
   2F   002F
   30   0030
   31   0031
   32   0032
   33   0033
   34   0034
   35   0035
   36   0036
   37   0037
   38   0038
   39   0039
   3A   003A
   3B   003B
   3C   003C
   3D   003D
   3E   003E
   3F   003F
   40   00E0
   41   0041
   42   0042
   43   0043
   44   0044
   45   0045
   46   0046
   47   0047
   48   0048
   49   0049
   4A   004A
   4B   004B
   4C   004C
   4D   004D
   4E   004E
   4F   004F
   50   0050
   51   0051
   52   0052
   53   0053
   54   0054
   55   0055
   56   0056
   57   0057
   58   0058
   59   0059
   5A   005A
   5B   FFFF
   5C   00E7
   5D   FFFF
   5E   007E
   5F   2500
   60   00B5
   61   0061
   62   0062
   63   0063
   64   0064
   65   0065
   66   0066
   67   0067
   68   0068
   69   0069
   6A   006A
   6B   006B
   6C   006C
   6D   006D
   6E   006E
   6F   006F
   70   0070
   71   0071
   72   0072
   73   0073
   74   0074
   75   0075
   76   0076
   77   0077
   78   0078
   79   0079
   7A   007A
   7B   00E9
   7C   0021
   7D   00E8
   7E   2510
   7F   FFFF
   80   00C7
   81   00FC
   82   FFFF
   83   FFFF
   84   00E4
   85   FFFF
   86   00E5
   87   FFFF
   88   FFFF
   89   FFFF
   8A   FFFF
   8B   FFFF
   8C   FFFF
   8D   00EC
   8E   00C4
   8F   00C5
   90   00C9
   91   00E6
   92   00C6
   93   FFFF
   94   00F6
   95   00F2
   96   FFFF
   97   FFFF
   98   00FF
   99   00D6
   9A   00DC
   9B   00F8
   9C   FFFF
   9D   00D8
   9E   00D7
   9F   FFFF
   A0   00E1
   A1   00ED
   A2   00F3
   A3   00FA
   A4   00F1
   A5   00D1
   A6   00AA
   A7   00BA
   A8   00BF
   A9   00AE
   AA   00EA
   AB   00EB
   AC   00BC
   AD   00A1
   AE   00EE
   AF   00EF
   B0   FFFF
   B1   FFFF
   B2   FFFF
   B3   FFFF
   B4   FFFF
   B5   00C1
   B6   00C2
   B7   00C0
   B8   00A9
   B9   FFFF
   BA   FFFF
   BB   FFFF
   BC   FFFF
   BD   00A2
   BE   00A5
   BF   FFFF
   C0   FFFF
   C1   FFFF
   C2   FFFF
   C3   FFFF
   C4   FFFF
   C5   FFFF
   C6   00E3
   C7   00C3
   C8   FFFF
   C9   FFFF
   CA   FFFF
   CB   00F9
   CC   FFFF
   CD   FFFF
   CE   FFFF
   CF   00A4
   D0   00F0
   D1   00D0
   D2   00CA
   D3   00CB
   D4   00C8
   D5   2514
   D6   00CD
   D7   00CE
   D8   00AC
   D9   0023
   DA   0040
   DB   007B
   DC   007D
   DD   00A6
   DE   005C
   DF   007C
   E0   00D3
   E1   00DF
   E2   00D4
   E3   00D2
   E4   00F5
   E5   250C
   E6   0060
   E7   00FE
   E8   00AD
   E9   00F4
   EA   00DB
   EB   2104
   EC   00FD
   ED   00DD
   EE   00AF
   EF   00FB
   F0   00B1
   F1   FFFF
   F2   2334
   F3   21A7
   F4   00B2
   F5   2300
   F6   00F7
   F7   2264
   F8   2265
   F9   2126
   FA   00B3
   FB   00B9
   FC   2335
   FD   FFFF
   FE   00B7
   FF   FFFF
*END CP*
