 FONT CODE CORRESPONDING TO DSFT
*START CP*
 CHAR    UC    REP UC
------+------+--------
   00   FFFF
   01   FFFF
   02   FFFF
   03   FFFF
   04   FFFF
   05   FFFF
   06   FFFF
   07   FFFF
   08   FFFF
   09   FFFF
   0A   FFFF
   0B   FFFF
   0C   FFFF
   0D   FFFF
   0E   FFFF
   0F   FFFF
   10   FFFF
   11   FFFF
   12   FFFF
   13   FFFF
   14   FFFF
   15   FFFF
   16   FFFF
   17   FFFF
   18   FFFF
   19   FFFF
   1A   FFFF
   1B   FFFF
   1C   FFFF
   1D   FFFF
   1E   FFFF
   1F   FFFF
   20   0020
   21   0021
   22   0022
   23   0023
   24   0024
   25   0025
   26   0026
   27   0027
   28   0028
   29   0029
   2A   002A
   2B   002B
   2C   002C
   2D   002D
   2E   002E
   2F   002F
   30   0030
   31   0031
   32   0032
   33   0033
   34   0034
   35   0035
   36   0036
   37   0037
   38   0038
   39   0039
   3A   003A
   3B   003B
   3C   003C
   3D   003D
   3E   003E
   3F   003F
   40   0040
   41   0041
   42   0042
   43   0043
   44   0044
   45   0045
   46   0046
   47   0047
   48   0048
   49   0049
   4A   004A
   4B   004B
   4C   004C
   4D   004D
   4E   004E
   4F   004F
   50   0050
   51   0051
   52   0052
   53   0053
   54   0054
   55   0055
   56   0056
   57   0057
   58   0058
   59   0059
   5A   005A
   5B   FFFF
   5C   005C
   5D   FFFF
   5E   FFFF
   5F   005F
   60   0060
   61   2220
   62   25A1
   63   F000
   64   2313
   65   25EF
   66   2225
   67   232D
   68   2197
   69   232F
   6A   2316
   6B   2312
   6C   24C1
   6D   24C2
   6E   2500
   6F   25CB
   70   24C5
   71   2322
   72   233E
   73   24C8
   74   22A5
   75   2332
   76   2333
   77   2330
   78   25BB
   79   24BB
   7A   24C9
   7B   005B
   7C   007C
   7D   005D
   7E   00AC
   7F   24BA
   80   FFFF
   81   FFFF
   82   FFFF
   83   FFFF
   84   FFFF
   85   FFFF
   86   FFFF
   87   FFFF
   88   FFFF
   89   FFFF
   8A   FFFF
   8B   FFFF
   8C   FFFF
   8D   FFFF
   8E   FFFF
   8F   FFFF
   90   FFFF
   91   FFFF
   92   FFFF
   93   FFFF
   94   FFFF
   95   FFFF
   96   FFFF
   97   FFFF
   98   FFFF
   99   FFFF
   9A   FFFF
   9B   FFFF
   9C   FFFF
   9D   FFFF
   9E   FFFF
   9F   FFFF
   A0   235E
   A1   F005
   A2   F003
   A3   253C
   A4   00D7
   A5   25C7
   A6   234B
   A7   2621
   A8   F008
   A9   00A4
   AA   2733
   AB   25B3
   AC   25A1
   AD   25BD
   AE   F009
   AF   F00A
   B0   25CB
   B1   F001
   B2   F020
   B3   F021
   B4   F010
   B5   F022
   B6   F023
   B7   F024
   B8   F025
   B9   F026
   BA   2228
   BB   F027
   BC   F028
   BD   F029
   BE   2206
   BF   F02A
   C0   F02B
   C1   2349
   C2   FFFF
   C3   F02D
   C4   F02E
   C5   2336
   C6   F02F
   C7   F030
   C8   F031
   C9   F032
   CA   F033
   CB   00A6
   CC   F034
   CD   FFFF
   CE   FFFF
   CF   FFFF
   D0   F055
   D1   F056
   D2   FFFF
   D3   FFFF
   D4   FFFF
   D5   00A2
   D6   FFFF
   D7   FFFF
   D8   FFFF
   D9   FFFF
   DA   FFFF
   DB   FFFF
   DC   FFFF
   DD   FFFF
   DE   FFFF
   DF   FFFF
   E0   FFFF
   E1   FFFF
   E2   FFFF
   E3   FFFF
   E4   FFFF
   E5   FFFF
   E6   FFFF
   E7   FFFF
   E8   FFFF
   E9   FFFF
   EA   FFFF
   EB   2104
   EC   FFFF
   ED   FFFF
   EE   FFFF
   EF   00B0
   F0   00B1
   F1   FFFF
   F2   2334
   F3   21A7
   F4   FFFF
   F5   2300
   F6   FFFF
   F7   2264
   F8   2265
   F9   2126
   FA   FFFF
   FB   FFFF
   FC   2335
   FD   00B5
   FE   00B7
   FF   FFFF
*END CP*
